32
This is a (2, 2, 2) Face Centred Cubic 
Si 	 0.000000000 	 0.000000000 	 0.000000000 
Si 	 5.000000000 	 0.000000000 	 0.000000000 
Si 	 0.000000000 	 5.000000000 	 0.000000000 
Si 	 5.000000000 	 5.000000000 	 0.000000000 
Si 	 0.000000000 	 0.000000000 	 5.000000000 
Si 	 5.000000000 	 0.000000000 	 5.000000000 
Si 	 0.000000000 	 5.000000000 	 5.000000000 
Si 	 5.000000000 	 5.000000000 	 5.000000000 
Si 	 0.000000000 	 2.500000000 	 2.500000000 
Si 	 2.500000000 	 0.000000000 	 2.500000000 
Si 	 2.500000000 	 2.500000000 	 0.000000000 
Si 	 5.000000000 	 2.500000000 	 2.500000000 
Si 	 7.500000000 	 0.000000000 	 2.500000000 
Si 	 7.500000000 	 2.500000000 	 0.000000000 
Si 	 0.000000000 	 7.500000000 	 2.500000000 
Si 	 2.500000000 	 5.000000000 	 2.500000000 
Si 	 2.500000000 	 7.500000000 	 0.000000000 
Si 	 5.000000000 	 7.500000000 	 2.500000000 
Si 	 7.500000000 	 5.000000000 	 2.500000000 
Si 	 7.500000000 	 7.500000000 	 0.000000000 
Si 	 0.000000000 	 2.500000000 	 7.500000000 
Si 	 2.500000000 	 0.000000000 	 7.500000000 
Si 	 2.500000000 	 2.500000000 	 5.000000000 
Si 	 5.000000000 	 2.500000000 	 7.500000000 
Si 	 7.500000000 	 0.000000000 	 7.500000000 
Si 	 7.500000000 	 2.500000000 	 5.000000000 
Si 	 0.000000000 	 7.500000000 	 7.500000000 
Si 	 2.500000000 	 5.000000000 	 7.500000000 
Si 	 2.500000000 	 7.500000000 	 5.000000000 
Si 	 5.000000000 	 7.500000000 	 7.500000000 
Si 	 7.500000000 	 5.000000000 	 7.500000000 
Si 	 7.500000000 	 7.500000000 	 5.000000000 
