512
This is a (4, 4, 4) Face Centred Cubic 
Mg 	 0.035289312 	 0.090207640 	 0.072779193 
Mg 	 4.257431843 	 0.083361322 	 0.064277742 
Mg 	 8.456730531 	 0.087914421 	 0.057132225 
Mg 	 12.651636163 	 0.080627339 	 0.061866670 
Mg 	 0.051544312 	 4.244323765 	 0.073844555 
Mg 	 4.257356676 	 4.278092990 	 0.069790707 
Mg 	 8.461488711 	 4.274881177 	 0.061036296 
Mg 	 12.659508844 	 4.276746417 	 0.067093850 
Mg 	 0.052950682 	 8.474267359 	 0.067204201 
Mg 	 4.248190151 	 8.460793036 	 0.067916729 
Mg 	 8.451625535 	 8.479022391 	 0.069668056 
Mg 	 12.676451447 	 8.478157620 	 0.059176628 
Mg 	 0.068292055 	 12.695162119 	 0.057931055 
Mg 	 4.246994737 	 12.685815050 	 0.077444707 
Mg 	 8.452403712 	 12.666102523 	 0.070334680 
Mg 	 12.670593766 	 12.677444111 	 0.055306801 
Mg 	 0.058106379 	 0.076993389 	 4.268599902 
Mg 	 4.262183756 	 0.076585507 	 4.260656040 
Mg 	 8.466711747 	 0.071982415 	 4.269607329 
Mg 	 12.665014960 	 0.077587249 	 4.258132874 
Mg 	 0.069528215 	 4.272418223 	 4.271640958 
Mg 	 4.263392558 	 4.281988874 	 4.276354555 
Mg 	 8.458543572 	 4.286046434 	 4.271756503 
Mg 	 12.655220369 	 4.279803769 	 4.276113949 
Mg 	 0.063303811 	 8.469289569 	 4.256201139 
Mg 	 4.239538509 	 8.475497620 	 4.267745806 
Mg 	 8.458335145 	 8.493231429 	 4.259338872 
Mg 	 12.671225858 	 8.484857803 	 4.261438060 
Mg 	 0.061640329 	 12.667361195 	 4.260991066 
Mg 	 4.249988935 	 12.672647282 	 4.258624537 
Mg 	 8.458659381 	 12.683321151 	 4.254986860 
Mg 	 12.663185747 	 12.665878116 	 4.260431745 
Mg 	 0.060070831 	 0.083116720 	 8.460865412 
Mg 	 4.265786362 	 0.073097847 	 8.475997152 
Mg 	 8.468811650 	 0.065258811 	 8.474406418 
Mg 	 12.661499588 	 0.060567879 	 8.462026664 
Mg 	 0.053397122 	 4.272956781 	 8.472155240 
Mg 	 4.280809522 	 4.277246080 	 8.466341722 
Mg 	 8.470245291 	 4.287778983 	 8.459883920 
Mg 	 12.655726448 	 4.287820025 	 8.464247888 
Mg 	 0.055205431 	 8.459719524 	 8.491755050 
Mg 	 4.253465794 	 8.483426615 	 8.461945190 
Mg 	 8.455886407 	 8.499953186 	 8.467829083 
Mg 	 12.662258525 	 8.478400931 	 8.473632703 
Mg 	 0.064441638 	 12.666016619 	 8.462433421 
Mg 	 4.251077251 	 12.675452542 	 8.463047661 
Mg 	 8.450491273 	 12.683806968 	 8.458178881 
Mg 	 12.672860485 	 12.664860539 	 8.459322229 
Mg 	 0.056619726 	 0.082241940 	 12.656343542 
Mg 	 4.257671300 	 0.078549932 	 12.678918407 
Mg 	 8.465094778 	 0.083253842 	 12.670582147 
Mg 	 12.648084331 	 0.081842218 	 12.648886381 
Mg 	 0.068504464 	 4.277069081 	 12.664830598 
Mg 	 4.255522306 	 4.283430827 	 12.655173193 
Mg 	 8.457417280 	 4.286706811 	 12.657219728 
Mg 	 12.649153314 	 4.266516899 	 12.663542414 
Mg 	 0.061198821 	 8.458279158 	 12.685251091 
Mg 	 4.250389742 	 8.472290731 	 12.668552197 
Mg 	 8.450159073 	 8.488131608 	 12.680882903 
Mg 	 12.664742323 	 8.480566815 	 12.687654858 
Mg 	 0.059761759 	 12.690687967 	 12.666106982 
Mg 	 4.252069020 	 12.685146894 	 12.675602813 
Mg 	 8.456223146 	 12.667185095 	 12.674465056 
Mg 	 12.664663053 	 12.670881689 	 12.671734856 
Mg 	 0.051222145 	 2.169173901 	 2.197344834 
Mg 	 2.152608688 	 0.068008617 	 2.164692762 
Mg 	 2.149016475 	 2.175259648 	 0.091645457 
Mg 	 4.255717765 	 2.178334695 	 2.177390207 
Mg 	 6.363801733 	 0.083130131 	 2.169097710 
Mg 	 6.354403276 	 2.184807714 	 0.069149332 
Mg 	 8.462097219 	 2.177581051 	 2.171816252 
Mg 	 10.558495594 	 0.070652096 	 2.156841966 
Mg 	 10.564690251 	 2.179668756 	 0.065086254 
Mg 	 12.658734908 	 2.172585831 	 2.172446082 
Mg 	 14.742294135 	 0.067790303 	 2.176341133 
Mg 	 14.758750741 	 2.171477915 	 0.076163948 
Mg 	 0.064693671 	 6.362476804 	 2.161412267 
Mg 	 2.151430556 	 4.272982834 	 2.175977081 
Mg 	 2.143710879 	 6.361574628 	 0.067790366 
Mg 	 4.246250633 	 6.368391302 	 2.167266922 
Mg 	 6.359654631 	 4.280675646 	 2.173627820 
Mg 	 6.357867923 	 6.370505050 	 0.068268258 
Mg 	 8.466487811 	 6.381648278 	 2.165086445 
Mg 	 10.556604768 	 4.279856068 	 2.165645098 
Mg 	 10.564914853 	 6.379841967 	 0.059364478 
Mg 	 12.663912893 	 6.382881725 	 2.169826431 
Mg 	 14.752814234 	 4.275538984 	 2.185266605 
Mg 	 14.762708632 	 6.365530589 	 0.064845985 
Mg 	 0.063189803 	 10.583693425 	 2.156767959 
Mg 	 2.141787660 	 8.473267453 	 2.160903361 
Mg 	 2.159009992 	 10.582275787 	 0.060971239 
Mg 	 4.252577971 	 10.562980851 	 2.159453105 
Mg 	 6.343204559 	 8.468815157 	 2.174207497 
Mg 	 6.343114949 	 10.570483428 	 0.078269576 
Mg 	 8.452262901 	 10.568885765 	 2.173563339 
Mg 	 10.566244701 	 8.484213825 	 2.156929590 
Mg 	 10.556548912 	 10.576886950 	 0.078864299 
Mg 	 12.667924546 	 10.575185909 	 2.153549702 
Mg 	 14.773493419 	 8.473743206 	 2.157827635 
Mg 	 14.768304363 	 10.582442572 	 0.056113062 
Mg 	 0.062526346 	 14.778661662 	 2.157135068 
Mg 	 2.162885847 	 12.674330625 	 2.162895948 
Mg 	 2.148482591 	 14.793291599 	 0.076071227 
Mg 	 4.251137893 	 14.790788260 	 2.171559371 
Mg 	 6.349311540 	 12.675409595 	 2.163146098 
Mg 	 6.351117846 	 14.784006133 	 0.062962233 
Mg 	 8.457109165 	 14.774586190 	 2.153369111 
Mg 	 10.558075460 	 12.665957124 	 2.161146866 
Mg 	 10.549586307 	 14.772939933 	 0.055948622 
Mg 	 12.649042817 	 14.773653055 	 2.160487832 
Mg 	 14.762678717 	 12.681659946 	 2.153451484 
Mg 	 14.758273533 	 14.783330857 	 0.058429484 
Mg 	 0.063309901 	 2.177819739 	 6.375138107 
Mg 	 2.174450089 	 0.085933736 	 6.363782077 
Mg 	 2.160283562 	 2.176268119 	 4.268313696 
Mg 	 4.271235509 	 2.166733460 	 6.368436188 
Mg 	 6.361144014 	 0.062186355 	 6.366814689 
Mg 	 6.362183308 	 2.178587302 	 4.271764299 
Mg 	 8.467072337 	 2.169203899 	 6.366208738 
Mg 	 10.569659495 	 0.063206642 	 6.369113276 
Mg 	 10.555681061 	 2.172683448 	 4.264185592 
Mg 	 12.655630320 	 2.173464115 	 6.370683139 
Mg 	 14.759205753 	 0.082887500 	 6.363930030 
Mg 	 14.758251242 	 2.173295771 	 4.272467586 
Mg 	 0.068296291 	 6.377294090 	 6.378509663 
Mg 	 2.166488704 	 4.270507879 	 6.381712107 
Mg 	 2.159311778 	 6.377591538 	 4.278728675 
Mg 	 4.258263643 	 6.385604213 	 6.376427531 
Mg 	 6.367266058 	 4.279717626 	 6.369891124 
Mg 	 6.353734817 	 6.387171851 	 4.267671335 
Mg 	 8.462639943 	 6.394855824 	 6.361902270 
Mg 	 10.554695183 	 4.279722265 	 6.370921770 
Mg 	 10.558206648 	 6.391651302 	 4.267916471 
Mg 	 12.661330830 	 6.384060042 	 6.365512447 
Mg 	 14.753155606 	 4.280584390 	 6.367802554 
Mg 	 14.767622368 	 6.380801758 	 4.263381914 
Mg 	 0.057788611 	 10.562021860 	 6.362989157 
Mg 	 2.141606032 	 8.472838551 	 6.383857773 
Mg 	 2.155236165 	 10.566005747 	 4.263385390 
Mg 	 4.231525738 	 10.582502576 	 6.366202301 
Mg 	 6.350116137 	 8.493025574 	 6.354701433 
Mg 	 6.343399826 	 10.584362947 	 4.271854088 
Mg 	 8.461517293 	 10.592187367 	 6.362927907 
Mg 	 10.561898300 	 8.496716166 	 6.362839534 
Mg 	 10.570752970 	 10.587939976 	 4.266513541 
Mg 	 12.664547943 	 10.570189959 	 6.371310653 
Mg 	 14.768675970 	 8.478496194 	 6.374784864 
Mg 	 14.759034373 	 10.573459749 	 4.250043036 
Mg 	 0.068096182 	 14.777909917 	 6.351631072 
Mg 	 2.152554377 	 12.665323810 	 6.372227966 
Mg 	 2.158339301 	 14.767440126 	 4.274540025 
Mg 	 4.250527823 	 14.776646351 	 6.365145088 
Mg 	 6.344531571 	 12.684975760 	 6.357607177 
Mg 	 6.351457783 	 14.777579934 	 4.257602378 
Mg 	 8.457548772 	 14.773681803 	 6.358272192 
Mg 	 10.561261795 	 12.675923938 	 6.359408914 
Mg 	 10.565510310 	 14.773022757 	 4.252827119 
Mg 	 12.665172342 	 14.765710717 	 6.353760813 
Mg 	 14.769927250 	 12.662476062 	 6.359953618 
Mg 	 14.759950802 	 14.774023163 	 4.259229886 
Mg 	 0.053320580 	 2.175881783 	 10.564983567 
Mg 	 2.163236262 	 0.080048795 	 10.572264012 
Mg 	 2.167183361 	 2.178681877 	 8.473792485 
Mg 	 4.275282567 	 2.182271295 	 10.568597391 
Mg 	 6.362899305 	 0.073221887 	 10.573941607 
Mg 	 6.373152401 	 2.170187036 	 8.469084685 
Mg 	 8.455201482 	 2.177511013 	 10.560702063 
Mg 	 10.558751223 	 0.068588841 	 10.556072427 
Mg 	 10.565451121 	 2.178002260 	 8.461916979 
Mg 	 12.652675960 	 2.178578001 	 10.554723297 
Mg 	 14.750311058 	 0.069958138 	 10.549001451 
Mg 	 14.749133422 	 2.170022890 	 8.464261010 
Mg 	 0.058566933 	 6.374631609 	 10.579470431 
Mg 	 2.158874948 	 4.272249719 	 10.555104389 
Mg 	 2.160991432 	 6.367395531 	 8.484094012 
Mg 	 4.260277176 	 6.381444787 	 10.561520754 
Mg 	 6.364107122 	 4.282944731 	 10.560521714 
Mg 	 6.369762927 	 6.393626650 	 8.464973738 
Mg 	 8.458799914 	 6.396031756 	 10.556409941 
Mg 	 10.553680296 	 4.284631693 	 10.552700341 
Mg 	 10.554467681 	 6.399640524 	 8.459012090 
Mg 	 12.646715655 	 6.383308499 	 10.576698842 
Mg 	 14.754343035 	 4.280729380 	 10.567976777 
Mg 	 14.761521147 	 6.377298017 	 8.470804971 
Mg 	 0.065916438 	 10.567220324 	 10.584345799 
Mg 	 2.158932309 	 8.465455981 	 10.586781171 
Mg 	 2.146644758 	 10.568613049 	 8.481288533 
Mg 	 4.250947514 	 10.577564174 	 10.571007531 
Mg 	 6.353391215 	 8.499613497 	 10.563807181 
Mg 	 6.347697932 	 10.598021594 	 8.451924853 
Mg 	 8.436686188 	 10.582169466 	 10.565478669 
Mg 	 10.552634818 	 8.489048062 	 10.569835503 
Mg 	 10.557097057 	 10.579552160 	 8.475257297 
Mg 	 12.664564305 	 10.572938104 	 10.569227878 
Mg 	 14.757959826 	 8.472533467 	 10.585233123 
Mg 	 14.775375588 	 10.563662658 	 8.466053076 
Mg 	 0.070107463 	 14.782335163 	 10.554879501 
Mg 	 2.155329351 	 12.678252428 	 10.569537858 
Mg 	 2.164916975 	 14.781933187 	 8.468787221 
Mg 	 4.256400649 	 14.776217045 	 10.576749973 
Mg 	 6.352917025 	 12.684881447 	 10.574927872 
Mg 	 6.364717706 	 14.779374593 	 8.466764188 
Mg 	 8.457305458 	 14.770425444 	 10.572116313 
Mg 	 10.552772624 	 12.659427329 	 10.571055893 
Mg 	 10.561096832 	 14.757831189 	 8.464644903 
Mg 	 12.662162077 	 14.757545348 	 10.556513368 
Mg 	 14.773277067 	 12.671074130 	 10.567144654 
Mg 	 14.769941830 	 14.769302134 	 8.455531859 
Mg 	 0.060412627 	 2.172637010 	 14.766859588 
Mg 	 2.143386517 	 0.088102828 	 14.776278131 
Mg 	 2.155662071 	 2.179067349 	 12.662589306 
Mg 	 4.251520561 	 2.192284818 	 14.775028183 
Mg 	 6.356269513 	 0.093676186 	 14.771560022 
Mg 	 6.354243312 	 2.183577158 	 12.671027642 
Mg 	 8.459662351 	 2.192292083 	 14.765995406 
Mg 	 10.550516107 	 0.077998099 	 14.755292100 
Mg 	 10.553580142 	 2.182354085 	 12.659547268 
Mg 	 12.660470058 	 2.175750479 	 14.757241987 
Mg 	 14.746095703 	 0.094408050 	 14.755998998 
Mg 	 14.756290573 	 2.167128802 	 12.647748543 
Mg 	 0.064053192 	 6.362465132 	 14.778953579 
Mg 	 2.160207494 	 4.255305222 	 14.768676898 
Mg 	 2.168063807 	 6.351815190 	 12.674322765 
Mg 	 4.261182396 	 6.363853086 	 14.773940602 
Mg 	 6.353200895 	 4.274826796 	 14.758439930 
Mg 	 6.355763234 	 6.380520160 	 12.662494869 
Mg 	 8.448464548 	 6.377678953 	 14.775023258 
Mg 	 10.562956521 	 4.281358212 	 14.764881647 
Mg 	 10.552507054 	 6.383552953 	 12.667595245 
Mg 	 12.666647129 	 6.380534203 	 14.763418603 
Mg 	 14.756993312 	 4.258773593 	 14.766060750 
Mg 	 14.746189975 	 6.373544118 	 12.690900632 
Mg 	 0.072350566 	 10.582042200 	 14.763308782 
Mg 	 2.161924318 	 8.466857932 	 14.764865597 
Mg 	 2.149043421 	 10.575872823 	 12.678657649 
Mg 	 4.235625290 	 10.578645668 	 14.771685074 
Mg 	 6.341912352 	 8.479297378 	 14.776768269 
Mg 	 6.344107200 	 10.588409075 	 12.680137540 
Mg 	 8.450726385 	 10.574972917 	 14.785411204 
Mg 	 10.556868475 	 8.478029950 	 14.774246486 
Mg 	 10.550253774 	 10.577895242 	 12.666123677 
Mg 	 12.665241165 	 10.577152080 	 14.765604528 
Mg 	 14.759138102 	 8.477544960 	 14.775137063 
Mg 	 14.766462659 	 10.568770271 	 12.675478942 
Mg 	 0.053933534 	 14.804700763 	 14.761421271 
Mg 	 2.153189369 	 12.699274719 	 14.769204801 
Mg 	 2.153288348 	 14.778621657 	 12.679162281 
Mg 	 4.252960914 	 14.792818455 	 14.778066713 
Mg 	 6.344428351 	 12.676386033 	 14.782628040 
Mg 	 6.360912106 	 14.782889487 	 12.678077519 
Mg 	 8.449941492 	 14.777623856 	 14.771932825 
Mg 	 10.550910895 	 12.677203428 	 14.774077353 
Mg 	 10.552149400 	 14.760187773 	 12.660054645 
Mg 	 12.656494495 	 14.779442828 	 14.750425147 
Mg 	 14.762655124 	 12.684909576 	 14.757155333 
Mg 	 14.755017792 	 14.786161457 	 12.652563250 
Mg 	 0.060711065 	 0.084440188 	 2.166420202 
Mg 	 4.268861638 	 0.084310568 	 2.161360276 
Mg 	 8.445464696 	 0.081203937 	 2.165624012 
Mg 	 12.647830300 	 0.081333452 	 2.157646970 
Mg 	 0.060644649 	 4.270214349 	 2.175915560 
Mg 	 4.253864935 	 4.287112414 	 2.153136359 
Mg 	 8.457451906 	 4.276697985 	 2.166545040 
Mg 	 12.656335397 	 4.275327491 	 2.165146817 
Mg 	 0.054021268 	 8.488762283 	 2.156989806 
Mg 	 4.250499161 	 8.468328078 	 2.175676729 
Mg 	 8.450978005 	 8.468219658 	 2.176450409 
Mg 	 12.658430762 	 8.474198696 	 2.156574151 
Mg 	 0.057173300 	 12.684860498 	 2.140077501 
Mg 	 4.250056745 	 12.671831167 	 2.173281445 
Mg 	 8.444201334 	 12.667475239 	 2.168253534 
Mg 	 12.648092829 	 12.683653232 	 2.150058527 
Mg 	 0.053609862 	 0.080090045 	 6.357193905 
Mg 	 4.256741755 	 0.086764853 	 6.361589591 
Mg 	 8.460793933 	 0.078104483 	 6.358949243 
Mg 	 12.652219093 	 0.069983827 	 6.371169646 
Mg 	 0.056874065 	 4.275112951 	 6.370736398 
Mg 	 4.259522490 	 4.277610957 	 6.379759867 
Mg 	 8.457288353 	 4.288699787 	 6.369287010 
Mg 	 12.650925939 	 4.285147248 	 6.370699720 
Mg 	 0.050831606 	 8.475304078 	 6.362271585 
Mg 	 4.226313695 	 8.468539998 	 6.375559481 
Mg 	 8.448208746 	 8.495053078 	 6.358468885 
Mg 	 12.670142619 	 8.482538261 	 6.360796647 
Mg 	 0.058349111 	 12.691619364 	 6.350057126 
Mg 	 4.243360103 	 12.695260875 	 6.357921674 
Mg 	 8.448896116 	 12.673559331 	 6.361290174 
Mg 	 12.671751423 	 12.675407298 	 6.350267858 
Mg 	 0.053461060 	 0.070058875 	 10.574177994 
Mg 	 4.260752840 	 0.086273839 	 10.574896636 
Mg 	 8.478051623 	 0.067303533 	 10.559932585 
Mg 	 12.659667708 	 0.054777930 	 10.560178912 
Mg 	 0.045780541 	 4.284898193 	 10.567816836 
Mg 	 4.267272633 	 4.273005333 	 10.573914228 
Mg 	 8.473480370 	 4.282041864 	 10.559818098 
Mg 	 12.665339838 	 4.288735933 	 10.559656184 
Mg 	 0.060408866 	 8.478298477 	 10.581725916 
Mg 	 4.257951941 	 8.488717100 	 10.565865820 
Mg 	 8.450786202 	 8.491388647 	 10.561095352 
Mg 	 12.656028534 	 8.483510541 	 10.570483153 
Mg 	 0.065363251 	 12.683757393 	 10.569296460 
Mg 	 4.251604800 	 12.683886764 	 10.558436703 
Mg 	 8.451661116 	 12.681392431 	 10.556106177 
Mg 	 12.684876771 	 12.666136613 	 10.548179640 
Mg 	 0.057279277 	 0.085433621 	 14.768175603 
Mg 	 4.267937691 	 0.087415096 	 14.764015256 
Mg 	 8.457925818 	 0.074289388 	 14.759716381 
Mg 	 12.655374897 	 0.071815721 	 14.759406055 
Mg 	 0.053439350 	 4.275376107 	 14.773381517 
Mg 	 4.260462985 	 4.289192578 	 14.764979360 
Mg 	 8.470437328 	 4.284001944 	 14.756823104 
Mg 	 12.663311996 	 4.260690715 	 14.762897639 
Mg 	 0.057061690 	 8.477228622 	 14.779009804 
Mg 	 4.256050347 	 8.483331644 	 14.758641123 
Mg 	 8.463154457 	 8.484493904 	 14.765331231 
Mg 	 12.659883676 	 8.493161562 	 14.772015570 
Mg 	 0.059161125 	 12.715380463 	 14.758557370 
Mg 	 4.255288283 	 12.674629511 	 14.777521592 
Mg 	 8.457753181 	 12.660194927 	 14.773351693 
Mg 	 12.660077349 	 12.685403760 	 14.761591334 
Mg 	 0.062721259 	 2.180376687 	 4.269923183 
Mg 	 2.158006013 	 0.087079275 	 4.255541263 
Mg 	 2.161991909 	 2.180346452 	 2.172917498 
Mg 	 4.262403061 	 2.186557565 	 4.264959633 
Mg 	 6.352163181 	 0.092893278 	 4.255490949 
Mg 	 6.364279090 	 2.194566477 	 2.156916539 
Mg 	 8.455999836 	 2.178356863 	 4.269890347 
Mg 	 10.551273631 	 0.082003824 	 4.257858269 
Mg 	 10.549801737 	 2.171775627 	 2.166459837 
Mg 	 12.653218939 	 2.169618780 	 4.273259175 
Mg 	 14.750985035 	 0.085324355 	 4.259043480 
Mg 	 14.756883984 	 2.174728118 	 2.177443596 
Mg 	 0.064349391 	 6.373118163 	 4.261792401 
Mg 	 2.166406386 	 4.286120721 	 4.269047464 
Mg 	 2.148738591 	 6.378298339 	 2.166300298 
Mg 	 4.245751396 	 6.371959435 	 4.269229694 
Mg 	 6.354737031 	 4.285847724 	 4.272058625 
Mg 	 6.357832223 	 6.375748207 	 2.170151003 
Mg 	 8.462074382 	 6.373693784 	 4.273050631 
Mg 	 10.560151588 	 4.275322270 	 4.267880046 
Mg 	 10.559053496 	 6.371380751 	 2.165009257 
Mg 	 12.664374793 	 6.380304078 	 4.264947635 
Mg 	 14.750331283 	 4.285755504 	 4.273195924 
Mg 	 14.760189997 	 6.372548986 	 2.161760346 
Mg 	 0.053228802 	 10.581491028 	 4.257113065 
Mg 	 2.132078447 	 8.472740108 	 4.271029368 
Mg 	 2.148083101 	 10.571786758 	 2.166349968 
Mg 	 4.237864769 	 10.571237604 	 4.279592336 
Mg 	 6.346077670 	 8.465358497 	 4.281005116 
Mg 	 6.342995195 	 10.567779126 	 2.176346288 
Mg 	 8.449056625 	 10.564978869 	 4.272337045 
Mg 	 10.559092104 	 8.479329593 	 4.262279296 
Mg 	 10.553019493 	 10.572580716 	 2.171016185 
Mg 	 12.668776375 	 10.575464680 	 4.255955195 
Mg 	 14.765518917 	 8.475806198 	 4.247078280 
Mg 	 14.753419380 	 10.589540751 	 2.145722541 
Mg 	 0.057549384 	 14.787401859 	 4.248004487 
Mg 	 2.154621915 	 12.675718592 	 4.247392205 
Mg 	 2.163331145 	 14.789684677 	 2.157667166 
Mg 	 4.252212480 	 14.788396545 	 4.252545944 
Mg 	 6.346963303 	 12.672316021 	 4.273233868 
Mg 	 6.347607215 	 14.776772842 	 2.167777976 
Mg 	 8.444443444 	 14.774519009 	 4.262374388 
Mg 	 10.554210134 	 12.671153439 	 4.259037381 
Mg 	 10.545947300 	 14.773494620 	 2.157961914 
Mg 	 12.648007315 	 14.778631155 	 4.251179572 
Mg 	 14.762052284 	 12.679867650 	 4.248685970 
Mg 	 14.748143046 	 14.785410590 	 2.146980342 
Mg 	 0.048470022 	 2.172447571 	 8.466714864 
Mg 	 2.154208160 	 0.067858029 	 8.469976788 
Mg 	 2.168607475 	 2.174664609 	 6.372353092 
Mg 	 4.261716051 	 2.166422944 	 8.476869285 
Mg 	 6.363009661 	 0.077068645 	 8.467962718 
Mg 	 6.359760686 	 2.184956736 	 6.370052292 
Mg 	 8.472557154 	 2.177803196 	 8.463285308 
Mg 	 10.553106460 	 0.060949635 	 8.466791761 
Mg 	 10.548112408 	 2.175252553 	 6.374771011 
Mg 	 12.651350989 	 2.171013776 	 8.466595486 
Mg 	 14.757811909 	 0.066486674 	 8.462330349 
Mg 	 14.750306099 	 2.170853814 	 6.367980414 
Mg 	 0.057005042 	 6.378330970 	 8.473931006 
Mg 	 2.152062433 	 4.270809188 	 8.484952633 
Mg 	 2.152723631 	 6.373703001 	 6.383851835 
Mg 	 4.258148864 	 6.376368782 	 8.482076575 
Mg 	 6.361790471 	 4.280355203 	 8.469524724 
Mg 	 6.350118250 	 6.385617210 	 6.371176527 
Mg 	 8.458542457 	 6.394538563 	 8.463105401 
Mg 	 10.563635745 	 4.286273680 	 8.455082028 
Mg 	 10.552454841 	 6.393569678 	 6.355242312 
Mg 	 12.655072422 	 6.394536680 	 8.458369370 
Mg 	 14.742818116 	 4.280487320 	 8.463621457 
Mg 	 14.758618210 	 6.381236040 	 6.368726957 
Mg 	 0.057156909 	 10.583010046 	 8.459099733 
Mg 	 2.144540493 	 8.482227221 	 8.471024442 
Mg 	 2.142352212 	 10.578468825 	 6.365960407 
Mg 	 4.239047769 	 10.584220059 	 8.452689652 
Mg 	 6.342308414 	 8.487490279 	 8.459036914 
Mg 	 6.331438964 	 10.577887576 	 6.367637598 
Mg 	 8.446302046 	 10.589333336 	 8.456670423 
Mg 	 10.560037540 	 8.492763651 	 8.458492716 
Mg 	 10.565942197 	 10.581698927 	 6.362457889 
Mg 	 12.669881692 	 10.571922122 	 8.453320307 
Mg 	 14.762888877 	 8.483890478 	 8.468553780 
Mg 	 14.779105837 	 10.573300748 	 6.347267936 
Mg 	 0.058865166 	 14.781404042 	 8.458223262 
Mg 	 2.144137012 	 12.694490868 	 8.461072426 
Mg 	 2.163691119 	 14.777797000 	 6.349659279 
Mg 	 4.264958867 	 14.788536591 	 8.457700401 
Mg 	 6.345550699 	 12.688797190 	 8.452313142 
Mg 	 6.351086720 	 14.787158141 	 6.351866681 
Mg 	 8.460974985 	 14.773968205 	 8.460182814 
Mg 	 10.562676770 	 12.666127890 	 8.455645139 
Mg 	 10.555502619 	 14.770082846 	 6.351806763 
Mg 	 12.668096553 	 14.756112170 	 8.455931588 
Mg 	 14.783505238 	 12.671751284 	 8.450478621 
Mg 	 14.760572027 	 14.785965401 	 6.350168543 
Mg 	 0.053685416 	 2.181009780 	 12.662527623 
Mg 	 2.162102116 	 0.083601885 	 12.664840593 
Mg 	 2.150438508 	 2.180324174 	 10.565360943 
Mg 	 4.261721398 	 2.190216541 	 12.663213158 
Mg 	 6.372112575 	 0.075998421 	 12.662683657 
Mg 	 6.378831337 	 2.173132481 	 10.561661291 
Mg 	 8.472482450 	 2.176260666 	 12.655141627 
Mg 	 10.562156534 	 0.065427694 	 12.653275660 
Mg 	 10.577420813 	 2.177902023 	 10.551768526 
Mg 	 12.666474451 	 2.175061880 	 12.647976992 
Mg 	 14.762864945 	 0.073962880 	 12.657252436 
Mg 	 14.750442839 	 2.170510064 	 10.563838722 
Mg 	 0.052033703 	 6.379792045 	 12.673590690 
Mg 	 2.156946661 	 4.279256450 	 12.661443324 
Mg 	 2.160902232 	 6.376590686 	 10.578275304 
Mg 	 4.261731637 	 6.379680447 	 12.666645875 
Mg 	 6.374986702 	 4.278649067 	 12.664855580 
Mg 	 6.363347188 	 6.385280418 	 10.560622810 
Mg 	 8.473455569 	 6.388501913 	 12.655521349 
Mg 	 10.565058364 	 4.284095561 	 12.655443088 
Mg 	 10.559941337 	 6.386307110 	 10.564009426 
Mg 	 12.651360372 	 6.377229931 	 12.675581221 
Mg 	 14.758206025 	 4.278846955 	 12.661781279 
Mg 	 14.746576134 	 6.383236962 	 10.572403382 
Mg 	 0.057500516 	 10.589243741 	 12.680547132 
Mg 	 2.158172420 	 8.484617845 	 12.676001798 
Mg 	 2.143257925 	 10.587972024 	 10.566077021 
Mg 	 4.248376287 	 10.587682651 	 12.659386237 
Mg 	 6.360722444 	 8.492039517 	 12.660367798 
Mg 	 6.344059033 	 10.593313350 	 10.553188475 
Mg 	 8.454659291 	 10.593814665 	 12.657480017 
Mg 	 10.556274628 	 8.494668495 	 12.669503340 
Mg 	 10.553764434 	 10.583255702 	 10.557296012 
Mg 	 12.652087834 	 10.593739257 	 12.667409671 
Mg 	 14.751211339 	 8.481368927 	 12.680257332 
Mg 	 14.763231778 	 10.577118899 	 10.563645137 
Mg 	 0.068595001 	 14.792221142 	 12.660713066 
Mg 	 2.160288055 	 12.692914875 	 12.667476125 
Mg 	 2.163355022 	 14.787667845 	 10.560473167 
Mg 	 4.261216493 	 14.778650970 	 12.667902544 
Mg 	 6.356520318 	 12.670173805 	 12.662494158 
Mg 	 6.359044516 	 14.775362745 	 10.566897120 
Mg 	 8.461368484 	 14.764982780 	 12.664594011 
Mg 	 10.567963964 	 12.673083468 	 12.644517218 
Mg 	 10.561991714 	 14.744807692 	 10.565283726 
Mg 	 12.666721524 	 14.762555703 	 12.650710660 
Mg 	 14.759661183 	 12.691089426 	 12.655165494 
Mg 	 14.774734591 	 14.773762405 	 10.547294210 
Mg 	 0.056141536 	 2.177667299 	 16.868170787 
Mg 	 2.170174506 	 0.091479642 	 16.870224441 
Mg 	 2.165419940 	 2.191246037 	 14.759796497 
Mg 	 4.266302104 	 2.186732844 	 16.861941550 
Mg 	 6.365046044 	 0.079006154 	 16.866446259 
Mg 	 6.366402024 	 2.186697814 	 14.758768579 
Mg 	 8.461720974 	 2.174197962 	 16.861064788 
Mg 	 10.547464656 	 0.075013713 	 16.860630241 
Mg 	 10.568726767 	 2.170054126 	 14.753800489 
Mg 	 12.652533632 	 2.162860595 	 16.872134290 
Mg 	 14.748871464 	 0.077142121 	 16.866502291 
Mg 	 14.751531175 	 2.172546320 	 14.767552695 
Mg 	 0.061008694 	 6.367366082 	 16.872796611 
Mg 	 2.165212631 	 4.275860928 	 16.868461427 
Mg 	 2.157996145 	 6.380252590 	 14.765388321 
Mg 	 4.254950345 	 6.379773959 	 16.865674788 
Mg 	 6.366008042 	 4.282871923 	 16.857124734 
Mg 	 6.367312104 	 6.386228649 	 14.762615987 
Mg 	 8.462278963 	 6.385087301 	 16.864529248 
Mg 	 10.560480191 	 4.273296946 	 16.862904839 
Mg 	 10.568126896 	 6.381207356 	 14.758321555 
Mg 	 12.654851114 	 6.374136010 	 16.863110985 
Mg 	 14.757528515 	 4.271875474 	 16.875385790 
Mg 	 14.743758602 	 6.376016197 	 14.777674549 
Mg 	 0.057810897 	 10.593071035 	 16.858014628 
Mg 	 2.151355522 	 8.487186252 	 16.865753974 
Mg 	 2.146030105 	 10.588032365 	 14.764806534 
Mg 	 4.240383509 	 10.571266518 	 16.877270164 
Mg 	 6.350014441 	 8.469214257 	 16.864946575 
Mg 	 6.347650252 	 10.565381947 	 14.769773540 
Mg 	 8.449553917 	 10.567441420 	 16.873180496 
Mg 	 10.560068933 	 8.478501476 	 16.871943633 
Mg 	 10.547244854 	 10.594513734 	 14.773303013 
Mg 	 12.657171741 	 10.588941599 	 16.867056365 
Mg 	 14.761884170 	 8.480630821 	 16.857263231 
Mg 	 14.764779348 	 10.595270751 	 14.759902376 
Mg 	 0.057005478 	 14.804474452 	 16.850232821 
Mg 	 2.157293118 	 12.686047980 	 16.870889900 
Mg 	 2.167727239 	 14.791324436 	 14.765165587 
Mg 	 4.267118258 	 14.779155182 	 16.863628360 
Mg 	 6.352230733 	 12.666777718 	 16.868227067 
Mg 	 6.361717332 	 14.769649418 	 14.770906458 
Mg 	 8.453352789 	 14.771248535 	 16.862924239 
Mg 	 10.543906986 	 12.664815665 	 16.859355837 
Mg 	 10.557334505 	 14.767598136 	 14.754853626 
Mg 	 12.643574244 	 14.783708758 	 16.849275795 
Mg 	 14.752323600 	 12.701384055 	 16.852329174 
Mg 	 14.749730075 	 14.807052320 	 14.743231877 
