500
This is a (5, 5, 5) Face Centred Cubic 
Ne 	 0.098977981 	 0.061371795 	 0.057596307 
Ne 	 4.291460551 	 0.041150732 	 0.084324514 
Ne 	 8.469080993 	 0.061295366 	 0.085552047 
Ne 	 12.714654382 	 0.089118676 	 0.047748288 
Ne 	 16.885398696 	 0.058570112 	 0.049922067 
Ne 	 0.106792192 	 4.257624823 	 0.075909802 
Ne 	 4.315847840 	 4.269821045 	 0.076802900 
Ne 	 8.469953513 	 4.306817334 	 0.052355677 
Ne 	 12.688004660 	 4.323546541 	 0.037175155 
Ne 	 16.884587888 	 4.278168019 	 0.058430546 
Ne 	 0.074516789 	 8.491982258 	 0.069463371 
Ne 	 4.270052265 	 8.507181360 	 0.049937089 
Ne 	 8.433860741 	 8.498394984 	 0.041023880 
Ne 	 12.662066343 	 8.489672077 	 0.035301924 
Ne 	 16.890332467 	 8.491546046 	 0.026391838 
Ne 	 0.074393819 	 12.687105083 	 0.044137884 
Ne 	 4.239777365 	 12.727540058 	 0.055483944 
Ne 	 8.456483500 	 12.680224709 	 0.065654176 
Ne 	 12.669820164 	 12.659948414 	 0.068395434 
Ne 	 16.877759933 	 12.676210168 	 0.012845517 
Ne 	 0.089025499 	 16.869559765 	 0.034512073 
Ne 	 4.259462989 	 16.889959986 	 0.044535367 
Ne 	 8.481034532 	 16.864296480 	 0.077495741 
Ne 	 12.660097829 	 16.864540313 	 0.066628912 
Ne 	 16.877660057 	 16.861212117 	 0.026687752 
Ne 	 0.076897613 	 0.051109049 	 4.277945720 
Ne 	 4.268064449 	 0.073276737 	 4.323698143 
Ne 	 8.477168723 	 0.042410890 	 4.303558748 
Ne 	 12.689451305 	 0.122594447 	 4.240107095 
Ne 	 16.903295266 	 0.056881870 	 4.241220905 
Ne 	 0.074836384 	 4.253955663 	 4.256337946 
Ne 	 4.282653831 	 4.249921729 	 4.258182270 
Ne 	 8.476381641 	 4.266096263 	 4.286132751 
Ne 	 12.675227471 	 4.263298594 	 4.227007878 
Ne 	 16.887774327 	 4.311349899 	 4.244921735 
Ne 	 0.098550933 	 8.499801773 	 4.224130512 
Ne 	 4.278861196 	 8.497782685 	 4.227575763 
Ne 	 8.406724507 	 8.507953578 	 4.266019814 
Ne 	 12.673918333 	 8.502271710 	 4.258104598 
Ne 	 16.872933158 	 8.487814663 	 4.273979885 
Ne 	 0.038362495 	 12.688251081 	 4.301506988 
Ne 	 4.236745073 	 12.735759123 	 4.237504863 
Ne 	 8.457552378 	 12.693511041 	 4.247377319 
Ne 	 12.695574777 	 12.676186686 	 4.240547986 
Ne 	 16.868562973 	 12.679342386 	 4.271666151 
Ne 	 0.049050730 	 16.863777218 	 4.274643914 
Ne 	 4.248204920 	 16.875717274 	 4.299391765 
Ne 	 8.476095650 	 16.878780012 	 4.277382903 
Ne 	 12.686201193 	 16.870186045 	 4.251100310 
Ne 	 16.885062258 	 16.867039014 	 4.209005905 
Ne 	 0.046024695 	 0.046417989 	 8.487073663 
Ne 	 4.270436657 	 0.070322827 	 8.502577741 
Ne 	 8.473517010 	 0.070860803 	 8.537459011 
Ne 	 12.679991645 	 0.090617501 	 8.466822721 
Ne 	 16.872882294 	 0.067293066 	 8.448822413 
Ne 	 0.075691037 	 4.260548302 	 8.458195753 
Ne 	 4.276457727 	 4.297997980 	 8.489126958 
Ne 	 8.457370899 	 4.291544311 	 8.457399780 
Ne 	 12.671697129 	 4.261446324 	 8.446200507 
Ne 	 16.917276407 	 4.271352780 	 8.463355076 
Ne 	 0.105652238 	 8.468703391 	 8.493623760 
Ne 	 4.259270348 	 8.465215543 	 8.494771841 
Ne 	 8.479014108 	 8.520787214 	 8.459070041 
Ne 	 12.636155734 	 8.480860384 	 8.513371475 
Ne 	 16.863843665 	 8.454839890 	 8.452801090 
Ne 	 0.065178516 	 12.653253735 	 8.499986400 
Ne 	 4.267848306 	 12.678919442 	 8.499082475 
Ne 	 8.426202721 	 12.685697427 	 8.457440009 
Ne 	 12.651680887 	 12.717618283 	 8.503997336 
Ne 	 16.831666569 	 12.687853430 	 8.474011739 
Ne 	 0.053012493 	 16.856192682 	 8.494907085 
Ne 	 4.257007904 	 16.863508209 	 8.485011133 
Ne 	 8.480281139 	 16.853582273 	 8.470020765 
Ne 	 12.713082085 	 16.896457935 	 8.437855687 
Ne 	 16.866088128 	 16.888009470 	 8.459092740 
Ne 	 0.055955129 	 0.029199330 	 12.653339523 
Ne 	 4.244959255 	 0.072601428 	 12.673539760 
Ne 	 8.482301900 	 0.063442314 	 12.672928090 
Ne 	 12.706210892 	 0.078566457 	 12.638426327 
Ne 	 16.868383996 	 0.083595819 	 12.687750293 
Ne 	 0.060158159 	 4.251054468 	 12.669460021 
Ne 	 4.240961282 	 4.263900482 	 12.698199869 
Ne 	 8.468185587 	 4.279244004 	 12.689232455 
Ne 	 12.701936424 	 4.275716640 	 12.665697627 
Ne 	 16.890558148 	 4.249655426 	 12.635232658 
Ne 	 0.063561474 	 8.439428212 	 12.673195258 
Ne 	 4.290973532 	 8.460729296 	 12.671504391 
Ne 	 8.471241216 	 8.474905001 	 12.713268474 
Ne 	 12.698705578 	 8.449738160 	 12.669950623 
Ne 	 16.885908446 	 8.468649661 	 12.640792804 
Ne 	 0.048560874 	 12.669689129 	 12.671322227 
Ne 	 4.263980319 	 12.705650135 	 12.641659393 
Ne 	 8.469094652 	 12.659222615 	 12.689406780 
Ne 	 12.690751340 	 12.668152565 	 12.658338870 
Ne 	 16.872209038 	 12.666040341 	 12.675370442 
Ne 	 0.041848491 	 16.878577784 	 12.673332660 
Ne 	 4.288568006 	 16.877837098 	 12.651155168 
Ne 	 8.518216653 	 16.862223728 	 12.679255240 
Ne 	 12.698845588 	 16.886771490 	 12.663833212 
Ne 	 16.850992402 	 16.857368331 	 12.700881548 
Ne 	 0.076358578 	 0.066867573 	 16.863200940 
Ne 	 4.257056026 	 0.087214272 	 16.842498654 
Ne 	 8.466456785 	 0.113944613 	 16.847003909 
Ne 	 12.660628447 	 0.093852689 	 16.890380687 
Ne 	 16.878951338 	 0.079180799 	 16.852046849 
Ne 	 0.078035169 	 4.276943036 	 16.884565684 
Ne 	 4.266656618 	 4.287504388 	 16.857882138 
Ne 	 8.463620347 	 4.253604031 	 16.858742965 
Ne 	 12.705575990 	 4.301643436 	 16.860795330 
Ne 	 16.909970872 	 4.263458222 	 16.851259512 
Ne 	 0.097434503 	 8.473361686 	 16.845863055 
Ne 	 4.247004923 	 8.523500783 	 16.854012346 
Ne 	 8.474387489 	 8.499951808 	 16.862301518 
Ne 	 12.754228747 	 8.485347694 	 16.822606068 
Ne 	 16.930759992 	 8.446055400 	 16.855131836 
Ne 	 0.099885414 	 12.688143588 	 16.813486970 
Ne 	 4.249750181 	 12.734451427 	 16.855503170 
Ne 	 8.469788034 	 12.666270037 	 16.871214438 
Ne 	 12.679447363 	 12.649636645 	 16.863430678 
Ne 	 16.898232338 	 12.656989078 	 16.871787513 
Ne 	 0.079358123 	 16.889394702 	 16.858388782 
Ne 	 4.305059484 	 16.893090374 	 16.841572617 
Ne 	 8.507237373 	 16.854958683 	 16.844853902 
Ne 	 12.633497622 	 16.881033497 	 16.870858066 
Ne 	 16.845826132 	 16.864610024 	 16.875418281 
Ne 	 0.082229277 	 2.146421170 	 2.163181899 
Ne 	 2.176338503 	 0.046865379 	 2.193801197 
Ne 	 2.204877801 	 2.148415463 	 0.084837767 
Ne 	 4.273909986 	 2.157256416 	 2.191209453 
Ne 	 6.354370562 	 0.032655978 	 2.205759846 
Ne 	 6.385275813 	 2.154713225 	 0.100917113 
Ne 	 8.489806206 	 2.177106253 	 2.168898978 
Ne 	 10.568175938 	 0.070368709 	 2.168639512 
Ne 	 10.596893720 	 2.192192540 	 0.072287735 
Ne 	 12.727361993 	 2.185310890 	 2.117925041 
Ne 	 14.827757636 	 0.061686246 	 2.124250339 
Ne 	 14.822028310 	 2.182987605 	 0.030378094 
Ne 	 16.929309159 	 2.165461366 	 2.146572932 
Ne 	 19.006090924 	 0.041196490 	 2.152996843 
Ne 	 18.988532157 	 2.160352491 	 0.065917238 
Ne 	 0.106969552 	 6.379447064 	 2.140164512 
Ne 	 2.190225186 	 4.258797601 	 2.164889205 
Ne 	 2.226806112 	 6.357034785 	 0.054428768 
Ne 	 4.310381128 	 6.377492351 	 2.149239988 
Ne 	 6.385389160 	 4.265540275 	 2.176255375 
Ne 	 6.376690796 	 6.421866713 	 0.020105829 
Ne 	 8.442225410 	 6.398568503 	 2.160321911 
Ne 	 10.565300082 	 4.287584872 	 2.155114512 
Ne 	 10.543634364 	 6.412325205 	 0.050778367 
Ne 	 12.672984971 	 6.408486295 	 2.150924931 
Ne 	 14.798470710 	 4.307084196 	 2.129154762 
Ne 	 14.805590556 	 6.416921397 	 0.035859013 
Ne 	 16.889578710 	 6.400957279 	 2.160430691 
Ne 	 19.006061006 	 4.287915626 	 2.160134885 
Ne 	 18.980422378 	 6.385020007 	 0.061351949 
Ne 	 0.092257277 	 10.577382522 	 2.149225042 
Ne 	 2.200056874 	 8.488015658 	 2.120332974 
Ne 	 2.172462316 	 10.599876882 	 0.026026879 
Ne 	 4.231473258 	 10.625245481 	 2.146703968 
Ne 	 6.352663882 	 8.514930836 	 2.132144137 
Ne 	 6.328237662 	 10.610196826 	 0.045150996 
Ne 	 8.423096373 	 10.597469678 	 2.151547609 
Ne 	 10.518610567 	 8.510192801 	 2.173610581 
Ne 	 10.532513575 	 10.560905027 	 0.060172944 
Ne 	 12.665088386 	 10.564050717 	 2.168894352 
Ne 	 14.782928246 	 8.490555876 	 2.148646381 
Ne 	 14.773557528 	 10.578194557 	 0.043278875 
Ne 	 16.878935699 	 10.586247504 	 2.148036644 
Ne 	 18.957649554 	 8.510733374 	 2.156486202 
Ne 	 18.989918742 	 10.591560542 	 0.044131672 
Ne 	 0.055159180 	 14.786947683 	 2.151291201 
Ne 	 2.143512270 	 12.719667796 	 2.167709591 
Ne 	 2.156124699 	 14.804018152 	 0.052519055 
Ne 	 4.239632871 	 14.823254793 	 2.157181430 
Ne 	 6.334928257 	 12.715029059 	 2.151874450 
Ne 	 6.371076138 	 14.794195150 	 0.054512869 
Ne 	 8.479080972 	 14.755514057 	 2.159498068 
Ne 	 10.570191592 	 12.653898794 	 2.156587703 
Ne 	 10.570497518 	 14.758181352 	 0.073912649 
Ne 	 12.687021746 	 14.763620158 	 2.150627354 
Ne 	 14.792705921 	 12.665966520 	 2.133550606 
Ne 	 14.758925376 	 14.786231767 	 0.040298655 
Ne 	 16.895623468 	 14.743527481 	 2.105042722 
Ne 	 18.992399908 	 12.661264345 	 2.162608519 
Ne 	 18.985255318 	 14.766492003 	 0.009524917 
Ne 	 0.080487234 	 18.951601735 	 2.160253475 
Ne 	 2.151358282 	 16.873616362 	 2.179037114 
Ne 	 2.171370311 	 18.957170584 	 0.071261787 
Ne 	 4.247769162 	 18.941913361 	 2.183990327 
Ne 	 6.378878432 	 16.875080235 	 2.179572043 
Ne 	 6.369287436 	 18.945445272 	 0.063451426 
Ne 	 8.460314052 	 18.965597753 	 2.183148139 
Ne 	 10.578002576 	 16.863519836 	 2.179035417 
Ne 	 10.557273801 	 18.955300844 	 0.081385247 
Ne 	 12.681505994 	 18.989369831 	 2.145412852 
Ne 	 14.772094607 	 16.881687870 	 2.126889052 
Ne 	 14.786485565 	 18.962173654 	 0.025072977 
Ne 	 16.910313474 	 18.942133730 	 2.129945019 
Ne 	 18.987058986 	 16.852551694 	 2.124654270 
Ne 	 18.986746473 	 18.958732709 	 0.048521591 
Ne 	 0.081853169 	 2.143555285 	 6.367337573 
Ne 	 2.157675374 	 0.066983905 	 6.399076420 
Ne 	 2.155489891 	 2.156991693 	 4.292614746 
Ne 	 4.280113805 	 2.189048460 	 6.396219855 
Ne 	 6.382258062 	 0.055879546 	 6.412628348 
Ne 	 6.387706890 	 2.149742763 	 4.274146485 
Ne 	 8.460744823 	 2.163889828 	 6.385008400 
Ne 	 10.567902329 	 0.085273095 	 6.409770082 
Ne 	 10.568983856 	 2.161188231 	 4.275015135 
Ne 	 12.666487664 	 2.177427076 	 6.344413938 
Ne 	 14.792382908 	 0.095242416 	 6.322389975 
Ne 	 14.827455203 	 2.183059732 	 4.210819091 
Ne 	 16.896849791 	 2.186010648 	 6.352881889 
Ne 	 18.980603598 	 0.042783581 	 6.364806905 
Ne 	 18.981422423 	 2.144823069 	 4.265532488 
Ne 	 0.103514708 	 6.411809171 	 6.343431083 
Ne 	 2.177039553 	 4.286667727 	 6.359022120 
Ne 	 2.202180129 	 6.386386641 	 4.233845392 
Ne 	 4.264150389 	 6.373242007 	 6.368942617 
Ne 	 6.360459856 	 4.268095181 	 6.364205273 
Ne 	 6.376749163 	 6.392310451 	 4.286119325 
Ne 	 8.488805602 	 6.420160362 	 6.373236335 
Ne 	 10.555228445 	 4.276439970 	 6.348128455 
Ne 	 10.547727607 	 6.393323561 	 4.249926291 
Ne 	 12.658734767 	 6.345394994 	 6.335917186 
Ne 	 14.779369891 	 4.258225598 	 6.325388567 
Ne 	 14.773327792 	 6.405366149 	 4.268979802 
Ne 	 16.904376968 	 6.358636135 	 6.349868955 
Ne 	 18.994456805 	 4.250777649 	 6.347452483 
Ne 	 19.007186389 	 6.396098987 	 4.244770893 
Ne 	 0.082107344 	 10.550985276 	 6.363239312 
Ne 	 2.210030391 	 8.503718428 	 6.321320683 
Ne 	 2.161221752 	 10.623725995 	 4.245439446 
Ne 	 4.253630322 	 10.632386277 	 6.352200864 
Ne 	 6.301631265 	 8.538462244 	 6.365219376 
Ne 	 6.328895952 	 10.623045585 	 4.232742554 
Ne 	 8.422962380 	 10.616305152 	 6.349447383 
Ne 	 10.584008174 	 8.524112717 	 6.370655390 
Ne 	 10.568461422 	 10.598141192 	 4.290202757 
Ne 	 12.662835220 	 10.639740867 	 6.410777845 
Ne 	 14.713060093 	 8.493333084 	 6.407781036 
Ne 	 14.787267120 	 10.595375377 	 4.263900742 
Ne 	 16.827620642 	 10.576804169 	 6.388294069 
Ne 	 18.981923563 	 8.460845103 	 6.365178488 
Ne 	 18.948565379 	 10.577712397 	 4.289274131 
Ne 	 0.042741867 	 14.762019307 	 6.409120009 
Ne 	 2.151272408 	 12.677108615 	 6.386427151 
Ne 	 2.114357382 	 14.793282165 	 4.291462656 
Ne 	 4.231032315 	 14.783645859 	 6.368829601 
Ne 	 6.342199273 	 12.725434610 	 6.329535098 
Ne 	 6.362269694 	 14.798988301 	 4.236420292 
Ne 	 8.461980678 	 14.795410461 	 6.344129099 
Ne 	 10.553546200 	 12.698258827 	 6.396456123 
Ne 	 10.583407208 	 14.761477568 	 4.260432868 
Ne 	 12.679023569 	 14.779408636 	 6.365070940 
Ne 	 14.761155614 	 12.709634620 	 6.361311116 
Ne 	 14.796811278 	 14.772621184 	 4.210746852 
Ne 	 16.865095523 	 14.802317808 	 6.348636399 
Ne 	 18.954467665 	 12.660319199 	 6.398137988 
Ne 	 18.949638053 	 14.762803226 	 4.256497032 
Ne 	 0.054283475 	 18.950003534 	 6.384616823 
Ne 	 2.137393913 	 16.863339207 	 6.389971522 
Ne 	 2.156044114 	 18.966099734 	 4.296412876 
Ne 	 4.242773559 	 18.972313549 	 6.406035307 
Ne 	 6.357046809 	 16.864087828 	 6.390161815 
Ne 	 6.346230153 	 18.950449728 	 4.312108806 
Ne 	 8.484734402 	 18.978697546 	 6.419771902 
Ne 	 10.588165158 	 16.875193102 	 6.360997493 
Ne 	 10.584278070 	 18.972564188 	 4.268631691 
Ne 	 12.674917083 	 18.994308963 	 6.337044574 
Ne 	 14.781862799 	 16.872224923 	 6.306847467 
Ne 	 14.774906306 	 18.985527717 	 4.217990120 
Ne 	 16.869473469 	 18.968192902 	 6.330587632 
Ne 	 18.964001710 	 16.868927521 	 6.373911172 
Ne 	 18.983418457 	 18.943681375 	 4.256713643 
Ne 	 0.076001643 	 2.143172066 	 10.559872722 
Ne 	 2.164182687 	 0.047230017 	 10.568545029 
Ne 	 2.179391832 	 2.182860282 	 8.468564346 
Ne 	 4.248152834 	 2.184341725 	 10.592539826 
Ne 	 6.351629172 	 0.085780016 	 10.615796576 
Ne 	 6.359882829 	 2.178003991 	 8.506082803 
Ne 	 8.448420706 	 2.201848768 	 10.607388176 
Ne 	 10.570384694 	 0.108531921 	 10.570785557 
Ne 	 10.528812270 	 2.205611594 	 8.485106210 
Ne 	 12.676034153 	 2.201614227 	 10.541609796 
Ne 	 14.791565068 	 0.054238263 	 10.561457340 
Ne 	 14.786308246 	 2.178522994 	 8.439652870 
Ne 	 16.891381802 	 2.151382517 	 10.545245875 
Ne 	 18.949477383 	 0.042618862 	 10.582874052 
Ne 	 18.986887763 	 2.146783282 	 8.456576895 
Ne 	 0.076122982 	 6.341377474 	 10.572487280 
Ne 	 2.161219374 	 4.266590923 	 10.574262237 
Ne 	 2.168045871 	 6.369552499 	 8.469984670 
Ne 	 4.268028837 	 6.356174147 	 10.583188712 
Ne 	 6.360820920 	 4.310271070 	 10.567759958 
Ne 	 6.386067908 	 6.395431152 	 8.436823490 
Ne 	 8.469066593 	 6.370804188 	 10.578246575 
Ne 	 10.576038103 	 4.291646080 	 10.563772638 
Ne 	 10.573522196 	 6.380412537 	 8.450054559 
Ne 	 12.688713111 	 6.352884112 	 10.564036533 
Ne 	 14.796396311 	 4.253358599 	 10.536088558 
Ne 	 14.774845804 	 6.339456690 	 8.433427978 
Ne 	 16.882196130 	 6.347529143 	 10.537171996 
Ne 	 18.996626038 	 4.262739462 	 10.540362827 
Ne 	 18.999017681 	 6.389022144 	 8.435167270 
Ne 	 0.084432206 	 10.554686405 	 10.593577619 
Ne 	 2.172937473 	 8.450339483 	 10.602319734 
Ne 	 2.175810513 	 10.573618111 	 8.481625424 
Ne 	 4.263688679 	 10.568703854 	 10.589966484 
Ne 	 6.393232486 	 8.458336861 	 10.572521670 
Ne 	 6.342144641 	 10.588222772 	 8.471747385 
Ne 	 8.454710326 	 10.559814512 	 10.606294032 
Ne 	 10.549765697 	 8.484381961 	 10.590623535 
Ne 	 10.560319160 	 10.603579488 	 8.509316761 
Ne 	 12.659717326 	 10.574126173 	 10.605265945 
Ne 	 14.792341245 	 8.486285526 	 10.541651546 
Ne 	 14.720802454 	 10.600092685 	 8.483890396 
Ne 	 16.859201860 	 10.574652771 	 10.541099851 
Ne 	 18.972593467 	 8.456659620 	 10.555211781 
Ne 	 18.980728679 	 10.548462057 	 8.464336059 
Ne 	 0.042564541 	 14.766582549 	 10.581109243 
Ne 	 2.142259033 	 12.661443888 	 10.590909275 
Ne 	 2.157648208 	 14.764309338 	 8.490460413 
Ne 	 4.264898173 	 14.778985602 	 10.571115470 
Ne 	 6.368557218 	 12.676172827 	 10.579722247 
Ne 	 6.353165723 	 14.787770844 	 8.449900492 
Ne 	 8.472007295 	 14.780255294 	 10.562071972 
Ne 	 10.538215777 	 12.697862308 	 10.606330058 
Ne 	 10.557137808 	 14.763145364 	 8.491454283 
Ne 	 12.681248903 	 14.801250920 	 10.573577303 
Ne 	 14.748011684 	 12.697185865 	 10.576787534 
Ne 	 14.784230938 	 14.801075853 	 8.470633921 
Ne 	 16.881537312 	 14.745650369 	 10.607926030 
Ne 	 18.957112678 	 12.641966572 	 10.556734463 
Ne 	 18.938654735 	 14.767010813 	 8.479905930 
Ne 	 0.031930115 	 18.938757335 	 10.583472046 
Ne 	 2.152894391 	 16.875656591 	 10.576319820 
Ne 	 2.153654481 	 18.959235024 	 8.491163975 
Ne 	 4.272948469 	 18.961037890 	 10.581318710 
Ne 	 6.379244300 	 16.861904369 	 10.574842229 
Ne 	 6.369017239 	 18.960743628 	 8.487103010 
Ne 	 8.484740706 	 18.942808314 	 10.578047686 
Ne 	 10.603507162 	 16.870246095 	 10.570550094 
Ne 	 10.599346430 	 18.973776826 	 8.488802883 
Ne 	 12.730521054 	 18.967494015 	 10.551412486 
Ne 	 14.810824839 	 16.866501530 	 10.592337774 
Ne 	 14.794202987 	 18.983201221 	 8.414393035 
Ne 	 16.868267505 	 18.956863922 	 10.592228796 
Ne 	 18.936564929 	 16.854461607 	 10.586137463 
Ne 	 18.946744980 	 18.949552190 	 8.477490669 
Ne 	 0.038203719 	 2.147467993 	 14.751270531 
Ne 	 2.142497805 	 0.061617381 	 14.761761804 
Ne 	 2.134019495 	 2.150825606 	 12.673426165 
Ne 	 4.215943738 	 2.182793328 	 14.811687949 
Ne 	 6.361270589 	 0.133455478 	 14.754921168 
Ne 	 6.331621297 	 2.201488607 	 12.690239536 
Ne 	 8.486925512 	 2.202298527 	 14.735496197 
Ne 	 10.588196221 	 0.096139348 	 14.767633827 
Ne 	 10.611214358 	 2.194383625 	 12.670086986 
Ne 	 12.688493896 	 2.192808252 	 14.778767862 
Ne 	 14.751810658 	 0.096848937 	 14.781010936 
Ne 	 14.774451378 	 2.166115539 	 12.640879860 
Ne 	 16.875132942 	 2.172464376 	 14.749113963 
Ne 	 18.972301053 	 0.073840185 	 14.766445190 
Ne 	 18.980845507 	 2.155989000 	 12.653846657 
Ne 	 0.058338582 	 6.362585634 	 14.769287468 
Ne 	 2.125106015 	 4.271308545 	 14.785461956 
Ne 	 2.171387864 	 6.353247452 	 12.685969217 
Ne 	 4.274930020 	 6.390606788 	 14.787206213 
Ne 	 6.360319576 	 4.277068549 	 14.785590864 
Ne 	 6.365208524 	 6.357528203 	 12.680442539 
Ne 	 8.485276924 	 6.375165161 	 14.789533874 
Ne 	 10.596805205 	 4.292585116 	 14.776324516 
Ne 	 10.577300257 	 6.370681148 	 12.674539055 
Ne 	 12.717484599 	 6.373218965 	 14.747204665 
Ne 	 14.809633034 	 4.268943680 	 14.752699775 
Ne 	 14.822760272 	 6.351614481 	 12.631080977 
Ne 	 16.917516261 	 6.351586383 	 14.734625866 
Ne 	 18.977994138 	 4.267573783 	 14.744976723 
Ne 	 18.973819232 	 6.352137361 	 12.632843259 
Ne 	 0.081389401 	 10.568339528 	 14.738520902 
Ne 	 2.194514016 	 8.483169527 	 14.758687646 
Ne 	 2.196031078 	 10.565733996 	 12.679691218 
Ne 	 4.259918762 	 10.625924370 	 14.762987771 
Ne 	 6.355973381 	 8.499591445 	 14.778971311 
Ne 	 6.355032708 	 10.580190501 	 12.683454402 
Ne 	 8.477919328 	 10.570027669 	 14.768727486 
Ne 	 10.602263421 	 8.474969802 	 14.775064493 
Ne 	 10.603019205 	 10.561879099 	 12.693221050 
Ne 	 12.712770021 	 10.563893827 	 14.755358529 
Ne 	 14.838409992 	 8.460480193 	 14.728637845 
Ne 	 14.789478246 	 10.568273785 	 12.669218591 
Ne 	 16.895218325 	 10.567445250 	 14.760262763 
Ne 	 18.993826130 	 8.459850985 	 14.737217109 
Ne 	 18.974521237 	 10.565464952 	 12.648843452 
Ne 	 0.055508234 	 14.809181857 	 14.758886359 
Ne 	 2.168949192 	 12.725330303 	 14.712903137 
Ne 	 2.153375062 	 14.812192029 	 12.652573967 
Ne 	 4.271233076 	 14.824708587 	 14.748056980 
Ne 	 6.349058734 	 12.690968089 	 14.767930981 
Ne 	 6.390960765 	 14.781690329 	 12.667432902 
Ne 	 8.504723399 	 14.750954226 	 14.760705947 
Ne 	 10.597438332 	 12.654836133 	 14.756914190 
Ne 	 10.609008509 	 14.774959798 	 12.676345679 
Ne 	 12.679777046 	 14.746221432 	 14.780193681 
Ne 	 14.784947431 	 12.674178531 	 14.763359752 
Ne 	 14.770483291 	 14.771563066 	 12.692243343 
Ne 	 16.855920879 	 14.766692695 	 14.797129266 
Ne 	 18.983004499 	 12.678163524 	 14.761801383 
Ne 	 18.956581351 	 14.767074234 	 12.692249275 
Ne 	 0.057911895 	 18.961226889 	 14.791320010 
Ne 	 2.183352947 	 16.893789936 	 14.756341144 
Ne 	 2.144215754 	 18.962000015 	 12.675271294 
Ne 	 4.294995235 	 18.982739130 	 14.742621663 
Ne 	 6.418328845 	 16.873842597 	 14.763162684 
Ne 	 6.409358050 	 18.952719142 	 12.690789485 
Ne 	 8.515385851 	 18.973596463 	 14.774629101 
Ne 	 10.602550973 	 16.867064383 	 14.763638625 
Ne 	 10.617679551 	 19.001634428 	 12.633520404 
Ne 	 12.650980366 	 18.988520071 	 14.760520064 
Ne 	 14.738296236 	 16.874225115 	 14.790718718 
Ne 	 14.787848575 	 18.983178303 	 12.696040488 
Ne 	 16.841514311 	 18.983434830 	 14.795279815 
Ne 	 18.941483603 	 16.877463480 	 14.797965366 
Ne 	 18.932149937 	 18.954975555 	 12.703058773 
Ne 	 0.106758596 	 2.155943728 	 18.978949112 
Ne 	 2.203557148 	 0.055961268 	 18.970864361 
Ne 	 2.125681097 	 2.155020995 	 16.868503265 
Ne 	 4.313331143 	 2.157308362 	 18.992256456 
Ne 	 6.387527653 	 0.072861554 	 18.966187182 
Ne 	 6.358834291 	 2.197411913 	 16.878303605 
Ne 	 8.462253524 	 2.180366096 	 18.983532069 
Ne 	 10.561567227 	 0.084260492 	 19.026752469 
Ne 	 10.543664517 	 2.180712068 	 16.882667021 
Ne 	 12.701833601 	 2.214398727 	 18.967447232 
Ne 	 14.781961547 	 0.075582594 	 18.943056025 
Ne 	 14.781892131 	 2.181866579 	 16.872623665 
Ne 	 16.920721503 	 2.192045629 	 18.934877257 
Ne 	 18.988227184 	 0.072235100 	 18.960097683 
Ne 	 19.000491961 	 2.159968323 	 16.837526942 
Ne 	 0.094505790 	 6.358661739 	 18.984168935 
Ne 	 2.205068568 	 4.269896488 	 18.954001114 
Ne 	 2.174130648 	 6.381446164 	 16.863979648 
Ne 	 4.289601647 	 6.402170035 	 18.935656371 
Ne 	 6.373752482 	 4.288665177 	 18.960199668 
Ne 	 6.373878343 	 6.393502794 	 16.862749520 
Ne 	 8.459964663 	 6.403119079 	 18.921856217 
Ne 	 10.582236137 	 4.321070054 	 18.935200981 
Ne 	 10.602326680 	 6.422426070 	 16.849851467 
Ne 	 12.705463881 	 6.406601607 	 18.923783553 
Ne 	 14.808378970 	 4.302668942 	 18.952976312 
Ne 	 14.827108233 	 6.381000938 	 16.839121311 
Ne 	 16.921563031 	 6.367533119 	 18.943451031 
Ne 	 19.002440462 	 4.249251355 	 18.971530249 
Ne 	 19.006817341 	 6.360745371 	 16.854017204 
Ne 	 0.092407569 	 10.579020877 	 18.950722256 
Ne 	 2.168420194 	 8.474171752 	 18.972034688 
Ne 	 2.176782121 	 10.604450755 	 16.841761424 
Ne 	 4.244951566 	 10.601762421 	 18.933362875 
Ne 	 6.353731280 	 8.512583776 	 18.932822744 
Ne 	 6.353740982 	 10.613979727 	 16.849867139 
Ne 	 8.443277923 	 10.591789796 	 18.955139589 
Ne 	 10.546552200 	 8.504305360 	 18.946557084 
Ne 	 10.583124743 	 10.584139219 	 16.839535011 
Ne 	 12.656765669 	 10.563647876 	 18.964478643 
Ne 	 14.808680766 	 8.489960663 	 18.926005353 
Ne 	 14.819532908 	 10.588350137 	 16.846453097 
Ne 	 16.907528381 	 10.569935662 	 18.925953975 
Ne 	 19.012135070 	 8.474166831 	 18.948662549 
Ne 	 19.016621707 	 10.558779147 	 16.832367572 
Ne 	 0.094781044 	 14.777176843 	 18.923982853 
Ne 	 2.171800338 	 12.715637730 	 18.939133332 
Ne 	 2.170720822 	 14.806133552 	 16.826113655 
Ne 	 4.284504859 	 14.805820881 	 18.943633490 
Ne 	 6.350413200 	 12.681157201 	 18.972389706 
Ne 	 6.387315659 	 14.772990593 	 16.848066312 
Ne 	 8.486040801 	 14.745857918 	 18.967804243 
Ne 	 10.573982379 	 12.657393130 	 18.973686851 
Ne 	 10.578828108 	 14.747518674 	 16.867728848 
Ne 	 12.660986216 	 14.760215158 	 18.966511707 
Ne 	 14.754281636 	 12.671504584 	 18.953692085 
Ne 	 14.742239763 	 14.763049511 	 16.872733463 
Ne 	 16.844181718 	 14.776676801 	 18.950231993 
Ne 	 19.010726470 	 12.664686307 	 18.922177898 
Ne 	 18.960953166 	 14.775340832 	 16.870105725 
Ne 	 0.087736024 	 18.979397514 	 18.949200929 
Ne 	 2.193682998 	 16.899455605 	 18.935898761 
Ne 	 2.197581542 	 18.971659267 	 16.858593160 
Ne 	 4.327294779 	 18.978002925 	 18.935706600 
Ne 	 6.413808884 	 16.869577002 	 18.939301903 
Ne 	 6.410256960 	 19.009944441 	 16.828040904 
Ne 	 8.471665458 	 18.983308212 	 18.954686895 
Ne 	 10.568734112 	 16.865883054 	 18.968033004 
Ne 	 10.563669342 	 19.006572574 	 16.877634403 
Ne 	 12.653391436 	 18.975622387 	 18.977139421 
Ne 	 14.744522399 	 16.861264162 	 18.955053261 
Ne 	 14.736239176 	 18.969015309 	 16.865648621 
Ne 	 16.869765779 	 18.967500449 	 18.938164149 
Ne 	 18.976329270 	 16.852024396 	 18.946997931 
Ne 	 18.955524915 	 18.977196577 	 16.880858434 
